Circuit: * C:\P3_Engineering\Design Competition\Design-comp-ECSE-p3-group-9\Hardware\LTspice files\Photodiode-cct.asc

Direct Newton iteration failed to find .op point.  (Use ".option noopiter" to skip.)
Starting Gmin stepping
Gmin = 10
Gmin = 1.07374
Gmin = 0.115292
Gmin = 0.0123794
Gmin = 0.00132923
Gmin = 0.000142725
Gmin = 1.5325e-005
Gmin = 1.6455e-006
Gmin = 1.76685e-007
Gmin = 1.89714e-008
Gmin = 2.03704e-009
Gmin = 2.18725e-010
Gmin = 2.34854e-011
Gmin = 2.52173e-012
Gmin = 2.70769e-013
Gmin = 0
Gmin stepping succeeded in finding the operating point.


Date: Thu Jun 25 09:28:44 2026
Total elapsed time: 0.260 seconds.

tnom = 27
temp = 27
method = modified trap
totiter = 2429
traniter = 2040
tranpoints = 1021
accept = 1021
rejected = 0
matrix size = 47
fillins = 33
solver = Normal
Thread vector: 9.9/4.6[4] 1.9/1.5[3] 1.5/1.7[1] 0.2/1.0[1]  2592/500
Matrix Compiler1: 3.73 KB object code size  0.7/0.3/[0.2]
Matrix Compiler2: off  [0.4]/0.5/0.4

